omegacsd_PMPAIN
 OpenBabel04101915033D

 24 27  0  0  0  0  0  0  0  0999 V2000
   -5.4277    2.1019  -14.5355 O   0  0  0  0  0  0  0  0  0  0  0  0
   -5.0836    1.3988  -13.4142 C   0  0  0  0  0  0  0  0  0  0  0  0
   -3.8736    1.5048  -12.7313 C   0  0  0  0  0  0  0  0  0  0  0  0
   -3.6483    0.7385  -11.5810 C   0  0  0  0  0  0  0  0  0  0  0  0
   -4.6130   -0.1544  -11.0997 C   0  0  0  0  0  0  0  0  0  0  0  0
   -4.4545   -0.8827   -9.8979 N   0  0  0  0  0  0  0  0  0  0  0  0
   -3.5790   -0.6739   -8.8780 C   0  0  0  0  0  0  0  0  0  0  0  0
   -3.2915    0.5804   -8.2489 C   0  0  0  0  0  0  0  0  0  0  0  0
   -3.7483    1.9080   -8.4079 C   0  0  0  0  0  0  0  0  0  0  0  0
   -3.2564    2.9181   -7.5741 C   0  0  0  0  0  0  0  0  0  0  0  0
   -2.3253    2.6247   -6.5820 C   0  0  0  0  0  0  0  0  0  0  0  0
   -1.8643    1.3192   -6.3923 C   0  0  0  0  0  0  0  0  0  0  0  0
   -2.3736    0.3223   -7.2336 C   0  0  0  0  0  0  0  0  0  0  0  0
   -2.1277   -1.0285   -7.2530 N   0  0  0  0  0  0  0  0  0  0  0  0
   -2.9042   -1.6755   -8.1938 C   0  0  0  0  0  0  0  0  0  0  0  0
   -2.8620   -3.1369   -8.3386 C   0  0  0  0  0  0  0  0  0  0  0  0
   -2.7430   -3.9590   -7.2061 C   0  0  0  0  0  0  0  0  0  0  0  0
   -2.6878   -5.3501   -7.3295 C   0  0  0  0  0  0  0  0  0  0  0  0
   -2.7639   -5.9405   -8.5875 C   0  0  0  0  0  0  0  0  0  0  0  0
   -2.8860   -5.1388   -9.7213 C   0  0  0  0  0  0  0  0  0  0  0  0
   -2.9260   -3.7458   -9.5980 C   0  0  0  0  0  0  0  0  0  0  0  0
   -5.8165   -0.2664  -11.8074 C   0  0  0  0  0  0  0  0  0  0  0  0
   -6.0433    0.4969  -12.9579 C   0  0  0  0  0  0  0  0  0  0  0  0
   -4.7231    3.3195  -14.7460 C   0  0  0  0  0  0  0  0  0  0  0  0
  1 24  1  0  0  0  0
  1  2  1  0  0  0  0
  2  3  2  0  0  0  0
  2 23  1  0  0  0  0
  3  4  1  0  0  0  0
  4  5  2  0  0  0  0
  5 22  1  0  0  0  0
  5  6  1  0  0  0  0
  6  7  1  0  0  0  0
  7  8  1  0  0  0  0
  7 15  2  0  0  0  0
  8  9  2  0  0  0  0
  8 13  1  0  0  0  0
  9 10  1  0  0  0  0
 10 11  2  0  0  0  0
 11 12  1  0  0  0  0
 12 13  2  0  0  0  0
 13 14  1  0  0  0  0
 14 15  1  0  0  0  0
 15 16  1  0  0  0  0
 16 17  2  0  0  0  0
 16 21  1  0  0  0  0
 17 18  1  0  0  0  0
 18 19  2  0  0  0  0
 19 20  1  0  0  0  0
 20 21  2  0  0  0  0
 22 23  2  0  0  0  0
M  END
$$$$
